#======================================================================

# CRYSTAL DATA

#----------------------------------------------------------------------

data_VESTA_phase_1


_pd_phase_name                         'xyz O  Ce                             '
_cell_length_a                         11.55661
_cell_length_b                         11.55661
_cell_length_c                         18.00000
_cell_angle_alpha                      90
_cell_angle_beta                       90
_cell_angle_gamma                      120
_symmetry_space_group_name_H-M         'P 1'
_symmetry_Int_Tables_number            1

loop_
_symmetry_equiv_pos_as_xyz
   'x, y, z'

loop_
   _atom_site_label
   _atom_site_occupancy
   _atom_site_fract_x
   _atom_site_fract_y
   _atom_site_fract_z
   _atom_site_adp_type
   _atom_site_B_iso_or_equiv
   _atom_site_type_symbol
   O1       1.0    0.17422      0.06778      0.17388     Biso  1.000  O
   O2       1.0    0.28533      0.29000      0.34986     Biso  1.000  O
   O3       1.0    0.17422      0.06778      0.43864     Biso  1.000  O
   O4       1.0    0.06311      0.17889      0.26367     Biso  1.000  O
   O5       1.0    0.50756      0.06778      0.17388     Biso  1.000  O
   O6       1.0    0.61867      0.29000      0.34986     Biso  1.000  O
   O7       1.0    0.50756      0.06778      0.43864     Biso  1.000  O
   O8       1.0    0.39644      0.17889      0.26367     Biso  1.000  O
   O9       1.0    0.84089      0.06778      0.17388     Biso  1.000  O
   O10      1.0    0.95200      0.29000      0.34986     Biso  1.000  O
   O11      1.0    0.84089      0.06778      0.43864     Biso  1.000  O
   O12      1.0    0.72978      0.17889      0.26367     Biso  1.000  O
   O13      1.0    0.17422      0.40111      0.17388     Biso  1.000  O
   O14      1.0    0.28533      0.62333      0.34986     Biso  1.000  O
   O15      1.0    0.17422      0.40111      0.43864     Biso  1.000  O
   O16      1.0    0.06311      0.51222      0.26367     Biso  1.000  O
   O17      1.0    0.50756      0.40111      0.17388     Biso  1.000  O
   O18      1.0    0.61867      0.62333      0.34986     Biso  1.000  O
   O19      1.0    0.50756      0.40111      0.43864     Biso  1.000  O
   O20      1.0    0.39644      0.51222      0.26367     Biso  1.000  O
   O21      1.0    0.84089      0.40111      0.17388     Biso  1.000  O
   O22      1.0    0.95200      0.62333      0.34986     Biso  1.000  O
   O23      1.0    0.84089      0.40111      0.43864     Biso  1.000  O
   O24      1.0    0.72978      0.51222      0.26367     Biso  1.000  O
   O25      1.0    0.17422      0.73444      0.17388     Biso  1.000  O
   O26      1.0    0.28533      0.95667      0.34986     Biso  1.000  O
   O27      1.0    0.17422      0.73444      0.43864     Biso  1.000  O
   O28      1.0    0.06311      0.84556      0.26367     Biso  1.000  O
   O29      1.0    0.50756      0.73444      0.17388     Biso  1.000  O
   O30      1.0    0.61867      0.95667      0.34986     Biso  1.000  O
   O31      1.0    0.50756      0.73444      0.43864     Biso  1.000  O
   O32      1.0    0.39644      0.84556      0.26367     Biso  1.000  O
   O33      1.0    0.84089      0.73444      0.17388     Biso  1.000  O
   O34      1.0    0.95200      0.95667      0.34986     Biso  1.000  O
   O35      1.0    0.84089      0.73444      0.43864     Biso  1.000  O
   O36      1.0    0.72978      0.84556      0.26367     Biso  1.000  O
   O37      1.0    0.06311      0.17889      0           Biso  1.000  O
   O38      1.0    0.28533      0.29000      0.08737     Biso  1.000  O
   O39      1.0    0.39644      0.17889      0           Biso  1.000  O
   O40      1.0    0.61867      0.29000      0.08737     Biso  1.000  O
   O41      1.0    0.72978      0.17889      0           Biso  1.000  O
   O42      1.0    0.95200      0.29000      0.08737     Biso  1.000  O
   O43      1.0    0.06311      0.51222      0           Biso  1.000  O
   O44      1.0    0.28533      0.62333      0.08737     Biso  1.000  O
   O45      1.0    0.39644      0.51222      0           Biso  1.000  O
   O46      1.0    0.61867      0.62333      0.08737     Biso  1.000  O
   O47      1.0    0.72978      0.51222      0           Biso  1.000  O
   O48      1.0    0.95200      0.62333      0.08737     Biso  1.000  O
   O49      1.0    0.06311      0.84556      0           Biso  1.000  O
   O50      1.0    0.28533      0.95667      0.08737     Biso  1.000  O
   O51      1.0    0.39644      0.84556      0           Biso  1.000  O
   O52      1.0    0.61867      0.95667      0.08737     Biso  1.000  O
   O53      1.0    0.72978      0.84556      0           Biso  1.000  O
   O54      1.0    0.95200      0.95667      0.08737     Biso  1.000  O
   Ce1      1.0    0.06311      0.17889      0.39463     Biso  1.000  Ce
   Ce2      1.0    0.28533      0.29000      0.21869     Biso  1.000  Ce
   Ce3      1.0    0.39644      0.17889      0.39463     Biso  1.000  Ce
   Ce4      1.0    0.61867      0.29000      0.21869     Biso  1.000  Ce
   Ce5      1.0    0.72978      0.17889      0.39463     Biso  1.000  Ce
   Ce6      1.0    0.95200      0.29000      0.21869     Biso  1.000  Ce
   Ce7      1.0    0.06311      0.51222      0.39463     Biso  1.000  Ce
   Ce8      1.0    0.28533      0.62333      0.21869     Biso  1.000  Ce
   Ce9      1.0    0.39644      0.51222      0.39463     Biso  1.000  Ce
   Ce10     1.0    0.61867      0.62333      0.21869     Biso  1.000  Ce
   Ce11     1.0    0.72978      0.51222      0.39463     Biso  1.000  Ce
   Ce12     1.0    0.95200      0.62333      0.21869     Biso  1.000  Ce
   Ce13     1.0    0.06311      0.84556      0.39463     Biso  1.000  Ce
   Ce14     1.0    0.28533      0.95667      0.21869     Biso  1.000  Ce
   Ce15     1.0    0.39644      0.84556      0.39463     Biso  1.000  Ce
   Ce16     1.0    0.61867      0.95667      0.21869     Biso  1.000  Ce
   Ce17     1.0    0.72978      0.84556      0.39463     Biso  1.000  Ce
   Ce18     1.0    0.95200      0.95667      0.21869     Biso  1.000  Ce
   Ce19     1.0    0.17422      0.06778      0.04368     Biso  1.000  Ce
   Ce20     1.0    0.50756      0.06778      0.04368     Biso  1.000  Ce
   Ce21     1.0    0.84089      0.06778      0.04368     Biso  1.000  Ce
   Ce22     1.0    0.17422      0.40111      0.04368     Biso  1.000  Ce
   Ce23     1.0    0.50756      0.40111      0.04368     Biso  1.000  Ce
   Ce24     1.0    0.84089      0.40111      0.04368     Biso  1.000  Ce
   Ce25     1.0    0.17422      0.73444      0.04368     Biso  1.000  Ce
   Ce26     1.0    0.50756      0.73444      0.04368     Biso  1.000  Ce
   Ce27     1.0    0.84089      0.73444      0.04368     Biso  1.000  Ce
